 PDE   2000 0101000449.40NZ-41.130 174.760 27                    1.90MLWEL             163004................       
 PDE   2000 0101011926.99   41.927  20.543 10  G  1.144.518      4.80MLATH  4.70MLSKO  3911875F..............       
 PDE   2000 0101021015.59TG 41.915  20.534  6                    2.90MDPDG  2.60MLSKO  391012................       
 PDE   2000 0101021047.90FR 45.086   5.466  4  G                 2.10MLLDG             538017................       
 PDE   2000 0101021213.45? -11.348 164.568 33  N  1.164.3 2                            183009................       
 PDE   2000 0101032057.30FR 48.119  -2.959  3                    2.70MLLDG             538009................       
 PDE   2000 0101034733.97IT 38.348  12.009 10  G                 3.40MDROM             398023................       
 PDE   2000 0101035839.50P  34.801-116.287  6                    3.10MLPAS             043034................       
 PDE   2000 0101040224.88   35.430  22.498 33  N  1.183.4 2      3.80MDATH             400018................       
 PDE   2000 0101043010.37  -26.012 -68.803105  D 60.914.515                            127044................       
