PDE  2002 05 14 16 56 10.00 -36.5200   78.9300  10.0 5.6 6.1 MID-INDIAN RISE         
event name:       C051402E
time shift:         8.4000
half duration:      3.2000
latitude:         -36.5000
longitude:         78.6900
depth:             15.0000
Mrr:           -3.7037e+24
Mtt:           -6.4672e+25
Mpp:            6.8376e+25
Mrt:           -1.9166e+24
Mrp:            2.8490e+24
Mtp:            6.9671e+24
